Version 4
SHEET 1 880 680
WIRE -144 48 -176 48
WIRE -80 48 -144 48
WIRE 320 48 272 48
WIRE 704 48 672 48
WIRE -176 80 -176 48
FLAG -176 160 0
FLAG -144 48 Vin
FLAG 704 48 Vout
SYMBOL Misc\\signal -176 64 R0
WINDOW 123 0 0 Left 0
WINDOW 39 0 0 Left 0
SYMATTR InstName Vin
SYMATTR Value SINE(0 1 1500)
SYMBOL Draft3 496 48 R0
SYMATTR SpiceLine cutoff=1000 gain=-1
SYMATTR InstName X2
SYMBOL Draft2 96 48 R0
SYMATTR SpiceLine cutoff=200, gain=-1
SYMATTR InstName X1
TEXT 350 204 Left 2 !.tran 0 5m 0 5u
